                                  MODFLOW-NWT-SWR1 
      U.S. GEOLOGICAL SURVEY MODULAR FINITE-DIFFERENCE GROUNDWATER-FLOW MODEL
                            VERSION 1.0.9 07/01/2014
                    BASED ON MODFLOW-2005 VERSION 1.11.00 08/30/2013

 LIST FILE: model_1.list
                         UNIT    2

 OPENING model_1.nwt
 FILE TYPE:NWT   UNIT   32   STATUS:OLD    
 FORMAT:FORMATTED              ACCESS:SEQUENTIAL          

 *** ERROR OPENING FILE "model_1.nwt" ON UNIT    32
       SPECIFIED FILE STATUS: OLD    
       SPECIFIED FILE FORMAT: FORMATTED           
       SPECIFIED FILE ACCESS: SEQUENTIAL          
       SPECIFIED FILE ACTION: READ                
  -- STOP EXECUTION (SGWF2BAS7OPEN)
